/*--------------------------------*- C++ -*----------------------------------*\
| =========                 |                                                 |
| \\      /  F ield         | OpenFOAM: The Open Source CFD Toolbox           |
|  \\    /   O peration     | Version:  v1812                                 |
|   \\  /    A nd           | Web:      www.OpenFOAM.com                      |
|    \\/     M anipulation  |                                                 |
\*---------------------------------------------------------------------------*/
FoamFile
{
    version     2.0;
    format      ascii;
    class       dictionary;
    object      blockMeshDict;
}
// * * * * * * * * * * * * * * * * * * * * * * * * * * * * * * * * * * * * * //

convertToMeters   1;

vertices 

(

        (-2 -2 -0.5)//0 esquina inferior izquierda
        (-2 -0.707107 -0.5)//1
        (-2 0 -0.5)//2
        (-2 0.707107 -0.5)//3
        (-2 2 -0.5)//4 esquina superior derecha
        (-0.707107 -2 -0.5)//5
        (-0.707107 -0.707107 -0.5)//6
        (-1 0 -0.5)//7
        (-0.707107 0.707107 -0.5)//8
        (-0.707107 2 -0.5)
        (-0.353553 -0.353553 -0.5)//10 centro
        (-0.5 0 -0.5)//11 centro
        (-0.353553 0.353553 -0.5)//12 centro
        (0 -2 -0.5)//13
        (0 -1 -0.5)//14
        (0 -0.5 -0.5)//15
        (0 0.5 -0.5)//16
        (0 1 -0.5)//17
        (0 2 -0.5) //18


        (0.353553 -0.353553 -0.5)//19 centro
        (0.5 0 -0.5)//20 centro
        (0.353553 0.353553 -0.5)//21 centro
        (0.707107 -2 -0.5)//22
        (0.707107 -0.707107 -0.5)//23
        (1 0 -0.5)//24
        (0.707107 0.707107 -0.5)//25
        (0.707107 2 -0.5)//26
        (2 -2 -0.5)//27 esquina inferior derecha
        (2 -0.707107 -0.5)//28
        (2 0 -0.5)
        (2 0.707107 -0.5)
        (2 2 -0.5)//31 esquina superior derecha



        (-2 -2 0.5)//32
        (-2 -0.707107 0.5)//33
        (-2 0 0.5)//34
        (-2 0.707107 0.5)//35
        (-2 2 0.5)
        (-0.707107 -2 0.5)
        (-0.707107 -0.707107 0.5)
        (-1 0 0.5)
        (-0.707107 0.707107 0.5)//40
        (-0.707107 2 0.5)
        (-0.353553 -0.353553 0.5)//42
        (-0.5 0 0.5)
        (-0.353553 0.353553 0.5)//44 centro
        (0 -2 0.5)//45 línea 70
        (0 -1 0.5)//46
        (0 -0.5 0.5)//47
        (0 0.5 0.5)//48
        (0 1 0.5)//49
        (0 2 0.5) //50


        (0.353553 -0.353553 0.5)//51 centro
        (0.5 0 0.5)//52 centro
        (0.353553 0.353553 0.5)//53 centro
        (0.707107 -2 0.5)//54
        (0.707107 -0.707107 0.5)//55
        (1 0 0.5)//56
        (0.707107 0.707107 0.5)//57
        (0.707107 2 0.5)//58
        (2 -2 0.5)//59 esquina inferior derecha
        (2 -707107 0.5)//60
        (2 0 0.5)
        (2 707107 0.5)
        (2 2 0.5)//63 esquina superior derecha

);


blocks
(
/*
    hex (0 5 6 1  32 37 38 33) (20 20 1) simpleGrading (1 1 1)//0
    hex (1 6 7 2  33 38 39 34 ) (20 10 1) simpleGrading (1 1 1)//1
    hex (2 7 8 3  34 39 40 35) (20 10 1) simpleGrading (1 1 1)//2

    hex (3 8 9 4 35 40 41 36) (20 20 1) simpleGrading (1 1 1)
    hex (5 13 14 6 37 45 46 38) (10 20 1) simpleGrading (1 1 1)
    hex (6 14 15 10 38 46 47 42) (10 10 1) simpleGrading (1 1 1)//5 c
    hex (6 10 11 7 38 42 43 39) (10 10 1) simpleGrading (1 1 1)//6 c
    hex (7 11 12 8 39 43 44 40) (10 10 1) simpleGrading (1 1 1)//7 c
    hex (17 8 12 16 49 40 44 48) (10 10 1) simpleGrading (1 1 1)//8 c
    hex (8 17 18 9 40 49 50 41) (10 20 1) simpleGrading (1 1 1)
    hex (14 23 19 15 46 55 51 47) (10 10 1) simpleGrading (1 1 1)//10 c
    hex (19 23 24 20 51 55 56 52) (10 10 1) simpleGrading (1 1 1)//11 c
    hex (20 24 25 21 52 56 57 53) (10 10 1) simpleGrading (1 1 1)//12 c
    hex (16 21 25 17 48 53 57 49) (10 10 1) simpleGrading (1 1 1)//13 c
    hex (13 22 23 14 45 54 55 46) (10 20 1) simpleGrading (1 1 1)
    hex (17 25 26 18 49 57 58 50) (10 20 1) simpleGrading (1 1 1)
*/
    hex (23 22 27 28 55 54 59 60) (20 20 1) simpleGrading (1 1 1)
/*
    hex (23 28 29 24 55 60 61 56) (20 10 1) simpleGrading (1 1 1)
    hex (24 29 30 25 56 61 62 57) (20 10 1) simpleGrading (1 1 1)
    hex (25 30 31 26 57 62 63 58) (20 20 1) simpleGrading (1 1 1)
*/
);

edges
(
/* 
   arc 20 21 (0.469846 0.17101 -0.5)
    arc 21 16 (0.17101 0.469846 -0.5)
    arc 24 25 (0.939693 0.34202 -0.5)
    arc 25 17 (0.34202 0.939693 -0.5)
    arc 52 53 (0.469846 0.17101 0.5)
    arc 53 48 (0.17101 0.469846 0.5)
    arc 56 57 (0.939693 0.34202 0.5)
    arc 57 49 (0.34202 0.939693 0.5)
    arc 11 12 (-0.469846 0.17101 -0.5)
    arc 12 16 (-0.17101 0.469846 -0.5)
    arc 7 8 (-0.939693 0.34202 -0.5)
    arc 8 17 (-0.34202 0.939693 -0.5)
    arc 43 44 (-0.469846 0.17101 0.5)
    arc 44 48 (-0.17101 0.469846 0.5)
    arc 39 40 (-0.939693 0.34202 0.5)
    arc 40 49 (-0.34202 0.939693 0.5)
    arc 20 19 (0.469846 -0.17101 -0.5)
    arc 19 15 (0.17101 -0.469846 -0.5)
    arc 24 23 (0.939693 -0.34202 -0.5)
    arc 23 14 (0.34202 -0.939693 -0.5)
    arc 52 51 (0.469846 -0.17101 0.5)
    arc 51 47 (0.17101 -0.469846 0.5)
    arc 56 55 (0.939693 -0.34202 0.5)
    arc 55 46 (0.34202 -0.939693 0.5)
    arc 11 10 (-0.469846 -0.17101 -0.5)
    arc 10 15 (-0.17101 -0.469846 -0.5)
    arc 7 6 (-0.939693 -0.34202 -0.5)
    arc 6 14 (-0.34202 -0.939693 -0.5)
    arc 43 42 (-0.469846 -0.17101 0.5)
    arc 42 47 (-0.17101 -0.469846 0.5)
    arc 39 38 (-0.939693 -0.34202 0.5)
    arc 38 46 (-0.34202 -0.939693 0.5)
*/
);

boundary
(
/*  
  down
    {
        type symmetryPlane;
        faces
        (
            (5 0 32 37)
            (13 5 32 45)
            (22 13 45 54)
            (27 22 54 59)
        );
    }
    right
    {
        type patch;
        faces
        (
            (27 28 60 59)
            (28 29 61 60)
            (29 30 62 61)
            (30 31 63 62)
        );
    }
    up
    {
        type symmetryPlane;
        faces
        (
            (31 26 58 63)
            (26 18 50 58)
            (18 9 41 50)
            (9 4 36 41)
        );
    }
    left
    {
        type patch;
        faces
        (
            (0 1 33 32)
            (1 2 34 33)
            (2 3 35 34)
            (3 4 36 35)
        );
    }
    cylinder
    {
        type symmetry;
        faces
        (
            (10 15 47 42)//mano derecha?
            (11 10 42 43)
            (12 11 43 44)
            (16 12 44 48)
            (15 19 51 47)
            (19 20 52 51)
            (20 21 53 52)
            (21 16 48 53)
        );
    }
*/
);


mergePatchPairs
(
);

// ************************************************************************* //
